$DATA1 SOURCE='HSPICE' VERSION='I-2013.12-SP2 64-BIT'
.TITLE ' '
 gainmax_vout     f3db_vout        gainmax_vx       f3db_vx           
 gainmax_vy       f3db_vy          gainmax_vz       f3db_vz           
 temper           alter#            
   89.5218         1.051e+08         74.8956         2.461e+08        
   90.2498         1.295e+08         91.5947         1.149e+08        
   25.0000        1                 
